[General]
#user-interface = Cmdenv
cmdenv-express-mode = true
network = idsforwsn.networks.IDSforWSN
sim-time-limit = 50s

# Debugging & stats

**.simHelper.debug = true

##########################################################
#			Simulation parameters                        #
##########################################################
**.**.coreDebug = false
**.playgroundSizeX = 100m
**.playgroundSizeY = 100m
**.playgroundSizeZ = 0m
**.numNodes = 251
#**.simHelper.mobilityFile = "conf/mobility/1024nodes_320x320_uniform.txt"
#**.simHelper.mobilityFile = "conf/mobility/3nodes_linear_IDS.txt"
**.simHelper.mobilityFile = "conf/mobility/mobility_test2_smaller_100x100.txt"
**.simHelper.routingFile = "conf/netw/routing_test2.txt"
#**.simHelper.routingFile = "conf/netw/3nodes_linear_IDS.txt"
#**.simHelper.topologyStatsFile = "results/temp_1024nodes_320x320_uniform.gv"
**.simHelper.topologyStatsFile = "results/mobility_test2_smaller_100x100.gv"
#**.simHelper.topologyStatsFile = "results/3nodes_linear_IDS.gv"
**.simHelper.networkType = "StaticNetwLayer"
#**.simHelper.networkType = "WiseRouteEx"
**.simHelper.debug = true

#**.simHelper.routingFile = "conf/netw/routing_lab.txt"

##########################################################
#			WorldUtility parameters                      #
##########################################################
**.world.useTorus = false
**.world.use2D = true

##########################################################
#			         channel parameters                  #
##########################################################
**.connectionManager.sendDirect = false
**.connectionManager.pMax = 0.0031622776602mW
**.connectionManager.sat = -95dBm
#**.connectionManager.alpha = 2.332
**.connectionManager.alpha = 2
**.connectionManager.carrierFrequency = 2.412e+9Hz

##########################################################
#       Parameters for the Host                          #
##########################################################
#**.node[*].nicType = "NicCSMA"
**.node[*].nicType = "idsforwsn.nic.WirelessNicIDSBattery"

# Used modules
#**.node[*].mobilityType = "wsn.mobility.StaticMobility"
#**.node[*].nic.phyType = "wsn.phy.PhyLayerBatteryEx"
**.node[*].nic.phyType = "org.mixim.modules.phy.PhyLayerBattery"
**.node[*].nic.idsType = "idsforwsn.ids.IDSSimpleLayer"
**.node[*].nic.idsSenderType = "idsforwsn.ids.IDSSender"
**.node[*].nic.macType = "org.mixim.modules.mac.CSMA802154"
#**.node[*].networkType = "wsn.netw.StaticNetwLayer"
#**.node[*].applicationType = "wsn.application.SensorApplLayerEx"

################ PhyLayer parameters #####################
**.node[*].nic.phy.usePropagationDelay = false
**.node[*].nic.phy.thermalNoise = -93.66dBm
#**.node[*].nic.phy.thermalNoise = -100dBm
**.node[*].nic.phy.useThermalNoise = true
        
**.node[*].nic.phy.analogueModels = xmldoc("config.xml")
**.node[*].nic.phy.decider = xmldoc("config.xml")

**.node[*].nic.phy.sensitivity = -95dBm
**.node[*].nic.phy.maxTXPower = 0.0031622776602mW

**.node[*].nic.phy.initialRadioState = 0

################ IDS parameters ####################
#**.node[*].nic.ids.fwdBufferSize = 100
#**.node[*].nic.ids.fwdMinPacketsReceived = 0
#**.node[*].nic.ids.maxMonitoredNodes = 100
#**.node[*].nic.ids.debug = true
**.node[*].nic.ids.windowSize = 10s
#**.node[*].nic.ids.minVotesReceived = 1

################ MAC layer parameters ####################
#**.node[*].nic.mac.queueLength = 5
#**.node[*].nic.mac.headerLength = 24bit
#**.node[*].nic.mac.bitrate = 15360bps
**.node[*].nic.mac.txPower = 0.0031622776602mW
**.node[*].nic.mac.stats = true
**.node[*].nic.mac.trace = true

#**.node[*].nic.mac.ccaDetectionTime = 0.0005s
#**.node[*].nic.mac.aTurnaroundTime = 0s #no radio switch times
**.node[*].nic.mac.rxSetupTime = 0.001792 s #no radio switch times
#
#**.node[*].nic.mac.backoffMethod = "linear" # Martin: predefined as exponential for CSMA802154
#**.node[*].nic.mac.macMaxCSMABackoffs = 14
#**.node[*].nic.mac.contentionWindow = 20
#**.node[*].nic.mac.aUnitBackoffPeriod = 0.04s

# MAC Ack settings (disabled)
#**.node[*].nic.mac.useMACAcks = true #Martin: nastavil jsem dne 10.1.2013, zvazit kvuli funkcionalite IDS!!!
**.node[*].nic.mac.useMACAcks = false #Martin: nastavil jsem dne 10.1.2013, zvazit kvuli funkcionalite IDS!!!
#**.node[*].nic.mac.ackLength = 0bit
#**.node[*].nic.mac.macMaxFrameRetries = 0
#**.node[*].nic.mac.macAckWaitDuration = 0s
#**.node[*].nic.mac.sifs = 0s
#
#**.node[*].nic.mac.macMinBE = 0 #only used for exponential backoffs
#**.node[*].nic.mac.macMaxBE = 0 #only used for exponential backoffs

**.node[*].nic.mac.debug = false

################ Application layer parameters ############
**.node[*].applicationType = "SensorApplLayerEx"
**.appl.trafficType = "slots"
**.appl.trafficParam = 5s
**.appl.initializationTime = 0s
**.appl.headerLength = 1B
**.appl.debug = true
#**.node[1].appl.nbPackets = 100
#**.node[2].appl.nbPackets = 100
**.node[250].appl.nbPackets = 0
#**.node[4].appl.nbPackets = 0
**.node[*].appl.nbPackets = 100
**.node[*].appl.destAddr = 250

################ Attackers ###################
**.node[108].netwl.pPacketDropping = 0.8


################ NETW layer parameters ###################
**.node[*].networkType = "StaticNetwLayer"
#**.node[*].networkType = "WiseRouteEx"
**.node[*].netwl.debug = true
**.node[*].netwl.stats = true
**.node[*].netwl.headerLength = 32bit
**.node[*].netwl.sinkAddress = 0
# If set to zero, this node does not initiates route tree building.
# If set to a value larger than zero, this nodes periodically initiates route tree building.
**.node[*].netwl.routeFloodsInterval = 20 s
**.node[*].netwl.rssiThreshold = -90 dBm
**.node[*].netwl.trace = false

#**.node[1].netwl.pPacketDropping = 0.7

################ Mobility parameters #####################
**.node[*].mobilityType = "StaticMobility"
**.node[*].mobility.debug = false
#**.node[*].mobility.updateInterval = 0.1s
#**.node[0].mobility.initialX = 150m
#**.node[0].mobility.initialY = 200m
#**.node[0].mobility.initialZ = 250m
#
#**.node[1].mobility.initialX = 250m
#**.node[1].mobility.initialY = 100m
#**.node[1].mobility.initialZ = 100m
#
#**.node[2].mobility.initialX = 250m
#**.node[2].mobility.initialY = 200m
#**.node[2].mobility.initialZ = 200m
#
#**.node[3].mobility.initialX = 50m
#**.node[3].mobility.initialY = 100m
#**.node[3].mobility.initialZ = 110m
#
#**.node[4].mobility.initialX = 150m
#**.node[4].mobility.initialY = 180m
#**.node[4].mobility.initialZ = 100m
#
#**.node[5].mobility.initialX = 50m
#**.node[5].mobility.initialY = 200m
#**.node[5].mobility.initialZ = 10m

#**.node[*].mobility.initialX = -1m
#**.node[*].mobility.initialY = -1m


